Version 4
SHEET 1 880 680
WIRE 208 32 80 32
WIRE 288 32 208 32
WIRE 416 32 368 32
WIRE 560 32 496 32
WIRE 624 32 560 32
WIRE 208 48 208 32
WIRE 560 48 560 32
WIRE 80 96 80 32
WIRE 80 96 -32 96
WIRE -32 128 -32 96
WIRE 208 128 208 112
WIRE 560 128 560 112
WIRE 80 144 80 96
WIRE -32 256 -32 208
WIRE 80 256 80 208
WIRE 80 256 -32 256
WIRE 208 256 80 256
WIRE 288 256 208 256
WIRE 416 256 368 256
WIRE 560 256 496 256
WIRE 624 256 560 256
WIRE 208 272 208 256
WIRE 560 272 560 256
WIRE -32 288 -32 256
WIRE 208 352 208 336
WIRE 560 352 560 336
FLAG -32 288 0
FLAG 560 128 0
FLAG 208 128 0
FLAG 560 352 0
FLAG 208 352 0
FLAG 624 32 V+
FLAG 624 256 REF
SYMBOL voltage -32 112 R0
WINDOW 123 0 0 Left 0
WINDOW 39 0 0 Left 0
SYMATTR InstName V1
SYMATTR Value 3.3
SYMBOL cap 64 144 R0
SYMATTR InstName C1
SYMATTR Value 100n
SYMBOL cap 192 48 R0
SYMATTR InstName C2
SYMBOL ind 272 48 R270
WINDOW 0 32 56 VTop 2
WINDOW 3 5 56 VBottom 2
SYMATTR InstName L1
SYMBOL res 512 16 R90
WINDOW 0 0 56 VBottom 2
WINDOW 3 32 56 VTop 2
SYMATTR InstName R1
SYMBOL cap 544 48 R0
SYMATTR InstName C3
SYMBOL cap 192 272 R0
SYMATTR InstName C4
SYMBOL ind 272 272 R270
WINDOW 0 32 56 VTop 2
WINDOW 3 5 56 VBottom 2
SYMATTR InstName L2
SYMBOL res 512 240 R90
WINDOW 0 0 56 VBottom 2
WINDOW 3 32 56 VTop 2
SYMATTR InstName R2
SYMBOL cap 544 272 R0
SYMATTR InstName C5
