Version 4
SHEET 1 3648 1368
WIRE 1040 -752 1040 -800
WIRE 736 -736 736 -768
WIRE 992 -736 960 -736
WIRE 992 -688 944 -688
WIRE 1040 -640 1040 -672
WIRE 1040 -640 992 -640
WIRE 1152 -640 1040 -640
WIRE 1280 -640 1232 -640
WIRE 1328 -640 1280 -640
WIRE 1440 -640 1408 -640
WIRE 1552 -640 1520 -640
WIRE 1600 -640 1552 -640
WIRE 1808 -640 1680 -640
WIRE 2048 -640 1904 -640
WIRE 2112 -640 2048 -640
WIRE 2240 -640 2192 -640
WIRE 2368 -640 2320 -640
WIRE 736 -624 736 -656
WIRE 1280 -608 1280 -640
WIRE 1552 -608 1552 -640
WIRE 1808 -608 1712 -608
WIRE 2000 -608 1904 -608
WIRE 2048 -608 2048 -640
WIRE 2368 -608 2368 -640
WIRE 192 -592 192 -608
WIRE 1040 -592 1040 -640
WIRE 992 -576 960 -576
WIRE 992 -528 944 -528
WIRE 1280 -512 1280 -544
WIRE 1552 -512 1552 -544
WIRE 1712 -512 1712 -608
WIRE 2000 -512 2000 -608
WIRE 2048 -512 2048 -544
WIRE 2368 -512 2368 -544
WIRE 192 -496 192 -512
WIRE 1040 -464 1040 -512
WIRE 192 -304 192 -320
WIRE 192 -208 192 -224
WIRE 208 32 80 32
WIRE 288 32 208 32
WIRE 416 32 368 32
WIRE 560 32 496 32
WIRE 624 32 560 32
WIRE 208 48 208 32
WIRE 560 48 560 32
WIRE 80 96 80 32
WIRE 80 96 -32 96
WIRE -32 128 -32 96
WIRE 208 128 208 112
WIRE 560 128 560 112
WIRE 80 144 80 96
WIRE -32 256 -32 208
WIRE 80 256 80 208
WIRE 80 256 -32 256
WIRE 208 256 80 256
WIRE 288 256 208 256
WIRE 416 256 368 256
WIRE 560 256 496 256
WIRE 624 256 560 256
WIRE 208 272 208 256
WIRE 560 272 560 256
WIRE -32 288 -32 256
WIRE 208 352 208 336
WIRE 560 352 560 336
FLAG -32 288 0
FLAG 560 128 0
FLAG 208 128 0
FLAG 560 352 0
FLAG 208 352 0
FLAG 624 32 V+
FLAG 624 256 REF
FLAG 960 -736 PSW+
FLAG 944 -688 PSW-
FLAG 960 -576 NSW+
FLAG 944 -528 NSW-
FLAG 1040 -800 V+
FLAG 1040 -464 REF
FLAG 1280 -512 REF
FLAG 1552 -512 REF
FLAG 2048 -512 REF
FLAG 2368 -512 REF
FLAG 2000 -512 REF
FLAG 1712 -512 REF
FLAG 192 -496 PSW-
FLAG 192 -608 PSW+
FLAG 192 -208 NSW-
FLAG 192 -320 NSW+
FLAG 736 -768 V+
FLAG 736 -624 REF
FLAG 992 -640 pulse
SYMBOL voltage -32 112 R0
WINDOW 123 0 0 Left 0
WINDOW 39 0 0 Left 0
SYMATTR InstName V1
SYMATTR Value 3.3
SYMBOL cap 64 144 R0
SYMATTR InstName C1
SYMATTR Value 100n
SYMBOL cap 192 48 R0
SYMATTR InstName C2
SYMATTR Value 0.868p
SYMBOL ind 272 48 R270
WINDOW 0 32 56 VTop 2
WINDOW 3 5 56 VBottom 2
SYMATTR InstName L1
SYMATTR Value 6.3n
SYMBOL res 512 16 R90
WINDOW 0 0 56 VBottom 2
WINDOW 3 32 56 VTop 2
SYMATTR InstName R1
SYMATTR Value 42m
SYMBOL cap 544 48 R0
SYMATTR InstName C3
SYMATTR Value 4.5p
SYMBOL cap 192 272 R0
SYMATTR InstName C4
SYMATTR Value 0.868p
SYMBOL ind 272 272 R270
WINDOW 0 32 56 VTop 2
WINDOW 3 5 56 VBottom 2
SYMATTR InstName L2
SYMATTR Value 6.3n
SYMBOL res 512 240 R90
WINDOW 0 0 56 VBottom 2
WINDOW 3 32 56 VTop 2
SYMATTR InstName R2
SYMATTR Value 42m
SYMBOL cap 544 272 R0
SYMATTR InstName C5
SYMATTR Value 4.5p
SYMBOL sw 1040 -656 M180
SYMATTR InstName SW1
SYMATTR Value MYSW
SYMBOL res 1248 -656 R90
WINDOW 0 0 56 VBottom 2
WINDOW 3 32 56 VTop 2
SYMATTR InstName R3
SYMATTR Value 10.9
SYMBOL sw 1040 -496 M180
SYMATTR InstName SW2
SYMATTR Value MYSW
SYMBOL cap 1264 -608 R0
SYMATTR InstName C6
SYMATTR Value {C1A}
SYMBOL res 1424 -656 R90
WINDOW 0 0 56 VBottom 2
WINDOW 3 32 56 VTop 2
SYMATTR InstName R5
SYMATTR Value {R1A}
SYMBOL ind 1424 -624 R270
WINDOW 0 32 56 VTop 2
WINDOW 3 5 56 VBottom 2
SYMATTR InstName L3
SYMATTR Value {L1A}
SYMBOL res 1696 -656 R90
WINDOW 0 0 56 VBottom 2
WINDOW 3 32 56 VTop 2
SYMATTR InstName R6
SYMATTR Value {R2A}
SYMBOL tline 1856 -624 R0
SYMATTR InstName T1
SYMATTR Value Td={TDA} Z0={Z0A}
SYMBOL res 2208 -656 R90
WINDOW 0 0 56 VBottom 2
WINDOW 3 32 56 VTop 2
SYMATTR InstName R7
SYMATTR Value {R3A}
SYMBOL ind 2224 -624 R270
WINDOW 0 32 56 VTop 2
WINDOW 3 5 56 VBottom 2
SYMATTR InstName L4
SYMATTR Value {L2A}
SYMBOL cap 1536 -608 R0
SYMATTR InstName C7
SYMATTR Value {C2A}
SYMBOL cap 2032 -608 R0
SYMATTR InstName C8
SYMATTR Value {C3A}
SYMBOL cap 2352 -608 R0
SYMATTR InstName C9
SYMATTR Value {C4A}
SYMBOL voltage 192 -608 R0
WINDOW 123 0 0 Left 0
WINDOW 39 0 0 Left 0
SYMATTR InstName V2
SYMATTR Value PULSE(0 2 1n 500p 500p 25n 50n)
SYMBOL voltage 192 -320 R0
WINDOW 123 0 0 Left 0
WINDOW 39 0 0 Left 0
SYMATTR InstName V3
TEXT 1112 -584 Left 2 !.param C1A=0 R1A=0 L1A=0 C2A=0 R2A=0 C3A=0 R3A=0 L2A=0 C4A=0 TDA=0.625n Z0A=50
SYMATTR Value PULSE(2 0 1n 500p 500p 25n 50n)
SYMBOL res 720 -752 R0
SYMATTR InstName R4
SYMATTR Value 50
TEXT 760 -928 Left 2 !.model MYSW sw(Ron=1 Roff=1Meg vt=1 vh=0)
TEXT 224 -80 Left 2 !.tran 200n
