Version 4
SHEET 1 3648 1368
WIRE 896 -304 896 -352
WIRE 848 -288 816 -288
WIRE 848 -240 800 -240
WIRE 896 -192 896 -224
WIRE 1008 -192 896 -192
WIRE 1136 -192 1088 -192
WIRE 1184 -192 1136 -192
WIRE 1296 -192 1264 -192
WIRE 1408 -192 1376 -192
WIRE 1456 -192 1408 -192
WIRE 1664 -192 1536 -192
WIRE 1904 -192 1760 -192
WIRE 1968 -192 1904 -192
WIRE 2096 -192 2048 -192
WIRE 2224 -192 2176 -192
WIRE 2272 -192 2224 -192
WIRE 1136 -160 1136 -192
WIRE 1408 -160 1408 -192
WIRE 1664 -160 1568 -160
WIRE 1856 -160 1760 -160
WIRE 1904 -160 1904 -192
WIRE 2224 -160 2224 -192
WIRE 896 -144 896 -192
WIRE 848 -128 816 -128
WIRE 848 -80 800 -80
WIRE 1136 -64 1136 -96
WIRE 1408 -64 1408 -96
WIRE 1568 -64 1568 -160
WIRE 1856 -64 1856 -160
WIRE 1904 -64 1904 -96
WIRE 2224 -64 2224 -96
WIRE 896 -16 896 -64
WIRE 208 32 80 32
WIRE 288 32 208 32
WIRE 416 32 368 32
WIRE 560 32 496 32
WIRE 624 32 560 32
WIRE 208 48 208 32
WIRE 560 48 560 32
WIRE 80 96 80 32
WIRE 80 96 -32 96
WIRE -32 128 -32 96
WIRE 208 128 208 112
WIRE 560 128 560 112
WIRE 80 144 80 96
WIRE -32 256 -32 208
WIRE 80 256 80 208
WIRE 80 256 -32 256
WIRE 208 256 80 256
WIRE 288 256 208 256
WIRE 416 256 368 256
WIRE 560 256 496 256
WIRE 624 256 560 256
WIRE 208 272 208 256
WIRE 560 272 560 256
WIRE -32 288 -32 256
WIRE 208 352 208 336
WIRE 560 352 560 336
FLAG -32 288 0
FLAG 560 128 0
FLAG 208 128 0
FLAG 560 352 0
FLAG 208 352 0
FLAG 624 32 V+
FLAG 624 256 REF
FLAG 816 -288 PSW+
FLAG 800 -240 NSW-
FLAG 816 -128 NSW+
FLAG 800 -80 NSW-
FLAG 896 -352 V+
FLAG 896 -16 REF
FLAG 1136 -64 REF
FLAG 1408 -64 REF
FLAG 1904 -64 REF
FLAG 2224 -64 REF
FLAG 1856 -64 REF
FLAG 1568 -64 REF
FLAG 2272 -192 OUT1
SYMBOL voltage -32 112 R0
WINDOW 123 0 0 Left 0
WINDOW 39 0 0 Left 0
SYMATTR InstName V1
SYMATTR Value 3.3
SYMBOL cap 64 144 R0
SYMATTR InstName C1
SYMATTR Value 100n
SYMBOL cap 192 48 R0
SYMATTR InstName C2
SYMATTR Value 0.868p
SYMBOL ind 272 48 R270
WINDOW 0 32 56 VTop 2
WINDOW 3 5 56 VBottom 2
SYMATTR InstName L1
SYMATTR Value 6.3n
SYMBOL res 512 16 R90
WINDOW 0 0 56 VBottom 2
WINDOW 3 32 56 VTop 2
SYMATTR InstName R1
SYMATTR Value 42m
SYMBOL cap 544 48 R0
SYMATTR InstName C3
SYMATTR Value 4.5p
SYMBOL cap 192 272 R0
SYMATTR InstName C4
SYMATTR Value 0.868p
SYMBOL ind 272 272 R270
WINDOW 0 32 56 VTop 2
WINDOW 3 5 56 VBottom 2
SYMATTR InstName L2
SYMATTR Value 6.3n
SYMBOL res 512 240 R90
WINDOW 0 0 56 VBottom 2
WINDOW 3 32 56 VTop 2
SYMATTR InstName R2
SYMATTR Value 42m
SYMBOL cap 544 272 R0
SYMATTR InstName C5
SYMATTR Value 4.5p
SYMBOL sw 896 -208 M180
SYMATTR InstName MYSW
SYMBOL res 1104 -208 R90
WINDOW 0 0 56 VBottom 2
WINDOW 3 32 56 VTop 2
SYMATTR InstName R3
SYMATTR Value 10.9
SYMBOL sw 896 -48 M180
SYMATTR InstName MYSW
SYMBOL cap 1120 -160 R0
SYMATTR InstName C6
SYMATTR Value {C1A}
SYMBOL res 1280 -208 R90
WINDOW 0 0 56 VBottom 2
WINDOW 3 32 56 VTop 2
SYMATTR InstName R5
SYMATTR Value {R1A}
SYMBOL ind 1280 -176 R270
WINDOW 0 32 56 VTop 2
WINDOW 3 5 56 VBottom 2
SYMATTR InstName L3
SYMATTR Value {L1A}
SYMBOL res 1552 -208 R90
WINDOW 0 0 56 VBottom 2
WINDOW 3 32 56 VTop 2
SYMATTR InstName R6
SYMATTR Value {R2A}
SYMBOL tline 1712 -176 R0
SYMATTR InstName T1
SYMATTR Value Td={TDA} Z0={Z0A}
SYMBOL res 2064 -208 R90
WINDOW 0 0 56 VBottom 2
WINDOW 3 32 56 VTop 2
SYMATTR InstName R7
SYMATTR Value {R3A}
SYMBOL ind 2080 -176 R270
WINDOW 0 32 56 VTop 2
WINDOW 3 5 56 VBottom 2
SYMATTR InstName L4
SYMATTR Value {L2A}
SYMBOL cap 1392 -160 R0
SYMATTR InstName C7
SYMATTR Value {C2A}
SYMBOL cap 1888 -160 R0
SYMATTR InstName C8
SYMATTR Value {C3A}
SYMBOL cap 2208 -160 R0
SYMATTR InstName C9
SYMATTR Value {C4A}
TEXT 1344 -264 Left 2 ;Driver
TEXT 1464 -264 Left 2 ;Physical Res
TEXT 1680 -264 Left 2 ;Track
TEXT 1904 -264 Left 2 ;Receiver
TEXT 216 -40 Left 2 ;IBIS
TEXT 544 -40 Left 2 ;Datasheet
TEXT 40 -8 Left 2 ;Physical Cap
TEXT 1112 -584 Left 2 !.param C1A=0 R1A=0 L1A=0 C2A=0 R2A=0 C3A=0 R3A=0 L2A=0 C4A=0
TEXT 1112 -616 Left 2 !model MYSW sw(Ron=1 Roff=1Meg vt=1 vh=0)
